ttesttest.m
clc;
clear variables;
close all;
basemva = 100;  accuracy = 0.001; accel = 1.8; maxiter = 100;Lmn=0;FVSI=0;

% IEEE14T: IEEE14 Transmission bus system  
%        IEEE 14-BUS TEST SYSTEM (American Electric Power)
%        Bus Bus  Voltage Angle   ---Load---- -------Generator-----    Qsh
%        No  code Mag.    Degree  MW    Mvar  MW    Mvar    Qmin Qmax   

busdata=[1   1    1.06    0.0     0.0   0.0   122.2  0.0   0   0       0
         2   2    1.043   0.0   21.70  12.7   73.062  0.0 -40  50       0
         3   0    1.0     0.0     2.4   1.2    0.0  0.0   0   0       0
         4   0    1.06    0.0     7.6   1.6    0.0  0.0   0   0       0
         5   2    1.01    0.0    94.2  19.0    49.628  0.0 -40  40       0
         6   0    1.0     0.0     0.0   0.0    0.0  0.0   0   0       0
         7   0    1.0     0.0    22.8  10.9    0.0  0.0   0   0       0
         8   2    1.01    0.0    30.0  30.0    11.747  0.0 -30  40       0
         9   0    1.0     0.0     0.0   0.0    0.0  0.0   0   0       0
        10   0    1.0     0.0     5.8   2.0    0.0  0.0  0 0      19
        11   2    1.082   0.0     0.0   0.0    14.723  0.0   -6   24       0
        12   0    1.0     0       11.2  7.5    0    0     0   0       0
        13   2    1.071   0        0    0.0    12.04    0    -6  24       0
        14   0    1       0       6.2   1.6    0    0     0   0       0
        15   0    1       0       8.2   2.5    0    0     0   0       0
        16   0    1       0       3.5   1.8    0    0     0   0       0
        17   0    1       0       9.0   5.8    0    0     0   0       0
        18   0    1       0       3.2   0.9    0    0     0   0       0
        19   0    1       0       9.5   3.4    0    0     0   0       0
        20   0    1       0       2.2   0.7    0    0     0   0       0
        21   0    1       0      17.5  11.2    0    0     0   0       0
        22   0    1       0       0     0.0    0    0     0   0       0
        23   0    1       0       3.2   1.6    0    0     0   0       0
        24   0    1       0       8.7   6.7    0    0     0   0      4.3
        25   0    1       0       0     0.0    0    0     0   0       0
        26   0    1       0       3.5   2.3    0    0     0   0       0
        27   0    1       0       0     0.0    0    0     0   0       0
        28   0    1       0       0     0.0    0    0     0   0       0
        29   0    1       0       2.4   0.9    0    0     0   0       0
        30   0    1       0      10.6   1.9    0    0     0   0       0];
generator_no = [  
    1
    2
    5
    8
    11
    13
    ];

gp = [
    114.2112   
    73.9651   
    43.3381   
    18.6316   
    12.6719
    20.5890 
];

for i=1:length(generator_no)
        busdata(generator_no(i),7)=gp(i);
end

%                                        Line code
%         Bus bus   R      X     1/2 B   = 1 for lines
%         nl  nr  p.u.   p.u.   p.u.     > 1 or < 1 tr. tap at bus nl
linedata=[
          1   2   0.0192   0.0575   0.02640    1
          1   3   0.0452   0.1852   0.02040    1
          2   4   0.0570   0.1737   0.01840    1
          3   4   0.0132   0.0379   0.00420    1
          2   5   0.0472   0.1983   0.02090    1
          2   6   0.0581   0.1763   0.01870    1
          4   6   0.0119   0.0414   0.00450    1
          5   7   0.0460   0.1160   0.01020    1
          6   7   0.0267   0.0820   0.00850    1
          6   8   0.0120   0.0420   0.00450    1
          6   9   0.0      0.2080   0.0    0.978
          6  10   0         .5560   0      0.969
          9  11   0         .2080   0          1
          9  10   0         .1100   0          1
          4  12   0         .2560   0      0.932
         12  13   0         .1400   0          1
         12  14    .1231    .2559   0          1
         12  15    .0662    .1304   0          1
         12  16    .0945    .1987   0          1
         14  15    .2210    .1997   0          1
         16  17    .0824    .1923   0          1
         15  18    .1073    .2185   0          1
         18  19    .0639    .1292   0          1
         19  20    .0340    .0680   0          1
         10  20    .0936    .2090   0          1
         10  17    .0324    .0845   0          1
         10  21    .0348    .0749   0          1
         10  22    .0727    .1499   0          1
         21  22    .0116    .0236   0          1
         15  23    .1000    .2020   0          1
         22  24    .1150    .1790   0          1
         23  24    .1320    .2700   0          1
         24  25    .1885    .3292   0          1
         25  26    .2544    .3800   0          1
         25  27    .1093    .2087   0          1
         28  27     0       .3960   0      0.968
         27  29    .2198    .4153   0          1
         27  30    .3202    .6027   0          1
         29  30    .2399    .4533   0          1
          8  28    .0636    .2000   0.0214     1
          6  28    .0169    .0599   0.065      1
          ];
G(1)=0; G(2)=0; G(3)=1;


lfybus                            % form the bus admittance matrix
lfnewton1            % Load flow solution by Newton-Raphson method
busout              % Prints the power flow solution on the screen
lineflow          % computes and displays the line flow and losses

%% fuel cost

Pg(Pg==0)=[];
fprintf('Generation:\n')
for i=1:length(Pg)
    fprintf('%d %f\n',i,Pg(i))
end

% data=[
%     0.0038	2	0	50	200
% 0.0175	1.75	0	20	80
% 0.0625	1	0	15	50
% 0.0083	3.25	0	10	35
% 0.025	3	0	10	30
% 0.025	3	0	12	40
% ];

data=[
0	2	    0.0038	50	200
0	1.75	0.0175	20	80
0	1	    0.0625	15	50
0	3.25	0.0083	10	35
0	3	    0.025	10	30
0	3	    0.025	12	40
];


N = length(data(:,1)); % no.of generators

C=zeros(N,1); total_Gen=0;
    for i=1:N
        C(i)=(data(i,1)*(Pg(i)^2)+data(i,2)*Pg(i)+data(i,3));
        
    end

fprintf('Generator no.  Pg  Fuel cost\n')

for i=1:length(Pg)
     fprintf('%d    %f  %f\n',i,Pg(i),C(i))
end

Tot_gen = sum(Pg);
fprintf('The total generation and fuel cost:\n',Tot_gen)
TotCost=sum(C);
fprintf('%f\t%f\n',Tot_gen,TotCost)

% Lmn_index_1
% %Fvsi_index 
% Fvsi_index_1 
% 
% 
%  
% fprintf('\n') 
% fprintf(' Voltage Collapse Proximity Line Indices \n\n') 
% 
% fprintf(' Line From To Lmn\n  Fvsi\n     Hsi    \n') 
% fprintf(' No. Bus Bus \n') 
% for k = 1 : nbr 
% %  fprintf(' %5g', k), fprintf(' %5g', nl(k)), printf(' %5g',nr(k)), fprintf(' %7.5f', Lmn(k)),      
% %                                       fprintf(' %7.5f', Fvsi(k)),)
%                                       
%                                       disp('Table using disp command'),disp(' k     nl(k)     nr(k)      Lmn(k)    Fvsi(k)')
%                                       disp([k', nl(k)', nr(k)', Lmn(k)', Fvsi(k)'])
% end 

% CSI = max(Lmn,FVSI);
% % G=table(nl,nr,CSI);
% % disp(G)

% h=table(nl,nr,Lmn,FVSI,CSI);
% disp(h)





